17
                    3D
 Structure written by MMmdl.
 51 54  0  0  1  0            999 V2000
   -1.5658    7.5777   20.3989 C   0  0  0  0  0  0
   -0.6553    6.9895   19.5448 O   0  0  0  0  0  0
    0.6250    7.5030   19.5069 C   0  0  0  0  0  0
    1.5146    6.8020   18.7268 C   0  0  0  0  0  0
    2.8359    7.2053   18.5813 C   0  0  0  0  0  0
    3.2766    8.3671   19.2449 C   0  0  0  0  0  0
    4.6461    8.8413   19.0563 C   0  0  0  0  0  0
    5.5434    8.2270   18.3174 N   0  0  0  0  0  0
    6.6786    8.8970   18.1847 C   0  0  0  0  0  0
    7.7721    8.4176   17.3121 C   0  0  0  0  0  0
    8.7499    9.1122   17.0454 O   0  0  0  0  0  0
    7.5779    7.1693   16.8413 N   0  0  0  0  0  0
    8.3689    6.3364   16.0194 C   0  0  0  0  0  0
    9.7668    6.4147   16.0004 C   0  0  0  0  0  0
   10.5150    5.4886   15.2816 C   0  0  0  0  0  0
    9.8750    4.4611   14.5948 C   0  0  0  0  0  0
    8.4863    4.3866   14.5828 C   0  0  0  0  0  0
    7.7150    5.3324   15.2703 C   0  0  0  0  0  0
    6.3049    5.3200   15.1815 N   0  0  0  0  0  0
    5.7975    6.3804   14.3095 C   0  0  0  0  0  0
    4.2943    6.6069   14.5125 C   0  0  0  0  0  0
    3.5568    5.3004   14.3496 N   0  3  0  0  0  0
    4.0683    4.2215   15.2729 C   0  0  0  0  0  0
    5.5929    4.0459   15.0839 C   0  0  0  0  0  0
    6.7331   10.0974   18.8745 C   0  0  0  0  0  0
    5.2315   10.3548   19.7030 S   0  0  0  0  0  0
    2.3586    9.0680   20.0544 C   0  0  0  0  0  0
    1.0320    8.6430   20.1908 C   0  0  0  0  0  0
   -2.5245    7.0657   20.3166 H   0  0  0  0  0  0
   -1.2019    7.5052   21.4238 H   0  0  0  0  0  0
   -1.6901    8.6269   20.1309 H   0  0  0  0  0  0
    1.1847    5.9128   18.2098 H   0  0  0  0  0  0
    3.4867    6.6107   17.9586 H   0  0  0  0  0  0
    6.7791    6.6760   17.2105 H   0  0  0  0  0  0
   10.2891    7.2002   16.5253 H   0  0  0  0  0  0
   11.5917    5.5705   15.2517 H   0  0  0  0  0  0
   10.4571    3.7201   14.0669 H   0  0  0  0  0  0
    8.0218    3.5766   14.0414 H   0  0  0  0  0  0
    6.3391    7.3024   14.5262 H   0  0  0  0  0  0
    5.9895    6.1421   13.2626 H   0  0  0  0  0  0
    4.1021    7.0272   15.4999 H   0  0  0  0  0  0
    3.9236    7.3276   13.7827 H   0  0  0  0  0  0
    2.5816    5.4599   14.5583 H   0  0  0  0  0  0
    3.8323    4.4846   16.3042 H   0  0  0  0  0  0
    3.5460    3.2892   15.0534 H   0  0  0  0  0  0
    5.7872    3.5841   14.1148 H   0  0  0  0  0  0
    5.9582    3.3601   15.8490 H   0  0  0  0  0  0
    7.5454   10.8058   18.9307 H   0  0  0  0  0  0
    2.6664    9.9545   20.5896 H   0  0  0  0  0  0
    0.3513    9.1991   20.8171 H   0  0  0  0  0  0
    3.6389    4.9885   13.3924 H   0  0  0  0  0  0
  1  2  1  0  0  0
  1 29  1  0  0  0
  1 30  1  0  0  0
  1 31  1  0  0  0
  2  3  1  0  0  0
  3 28  1  0  0  0
  3  4  2  0  0  0
  4  5  1  0  0  0
  4 32  1  0  0  0
  5  6  2  0  0  0
  5 33  1  0  0  0
  6  7  1  0  0  0
  6 27  1  0  0  0
  7 26  1  0  0  0
  7  8  2  0  0  0
  8  9  1  0  0  0
  9 10  1  0  0  0
  9 25  2  0  0  0
 10 11  2  0  0  0
 10 12  1  0  0  0
 12 13  1  0  0  0
 12 34  1  0  0  0
 13 18  1  0  0  0
 13 14  2  0  0  0
 14 15  1  0  0  0
 14 35  1  0  0  0
 15 16  2  0  0  0
 15 36  1  0  0  0
 16 17  1  0  0  0
 16 37  1  0  0  0
 17 18  2  0  0  0
 17 38  1  0  0  0
 18 19  1  0  0  0
 19 24  1  0  0  0
 19 20  1  0  0  0
 20 21  1  0  0  0
 20 39  1  0  0  0
 20 40  1  0  0  0
 21 22  1  0  0  0
 21 41  1  0  0  0
 21 42  1  0  0  0
 22 23  1  0  0  0
 22 43  1  0  0  0
 22 51  1  0  0  0
 23 24  1  0  0  0
 23 44  1  0  0  0
 23 45  1  0  0  0
 24 46  1  0  0  0
 24 47  1  0  0  0
 25 26  1  0  0  0
 25 48  1  0  0  0
 27 28  2  0  0  0
 27 49  1  0  0  0
 28 50  1  0  0  0
M  CHG  1  22   1
M  END
> <i_m_stars>
0

> <s_m_entry_id>
10

> <s_m_entry_name>
chk1_3u9n_sar_1_db.40

> <s_m_Source_Path>
E:\1work\sh\inoutputs\inoutputs

> <s_m_Source_File>
CHK1_3u9n_corehop.mae

> <i_m_Source_File_Index>
6

> <s_fepmapper_entryid>
6

> <i_fepmapper_bias>
0

> <i_fepmapper_affinity>
1

> <r_user_dG_exp>
-9.716

> <r_fepmapper_exp_dG>
-9.716

> <i_fepmapper_unit>
1

> <r_m_Shape_Sim>
0.962034608955585

> <s_valid_Target_Source>
human

> <s_valid_Target_Tissue>
none

> <s_valid_Target_Subtype>
none

> <r_valid_delta_G_assoc(297_K_kcal/mol)>
-9.71558372903156

> <s_valid_Citation_Reference>
ACS Med Chem Lett 2012 3 pg 123 # 17

> <r_valid_affinity>
0.072

> <i_valid_affinity_bin>
1

> <s_valid_Affinity_Type>
ic_50

> <s_valid_ligand_variant_code>
23907-1

> <i_valid_Citation_Id>
4036

> <s_valid_version>
41812_23907-1_2013-3-27

> <b_valid_affinity_boolean>
1

> <r_valid_Affinity_chk1_(uM)>
0.072

> <s_m_subgroupid>
CHK1_3u9n_corehop

> <s_m_subgroup_title>
CHK1_3u9n_corehop

> <b_m_subgroup_collapsed>
0

$$$$
